*****
 OpenBabel07312212343D

 12 12  0  0  0  0  0  0  0  0999 V2000
    2.1678   -0.1499    0.0000 C   0  0  0  0  0  0  0  0  0  0  0  0
    2.8247    1.0861   -0.0000 C   0  0  0  0  0  0  0  0  0  0  0  0
    4.2172    1.1810   -0.0000 C   0  0  0  0  0  0  0  0  0  0  0  0
    4.9991    0.0280   -0.0000 C   0  0  0  0  0  0  0  0  0  0  0  0
    4.3671   -1.2134    0.0000 C   0  0  0  0  0  0  0  0  0  0  0  0
    2.9736   -1.2945    0.0000 C   0  0  0  0  0  0  0  0  0  0  0  0
    2.2710    2.0096   -0.0000 H   0  0  0  0  0  0  0  0  0  0  0  0
    4.6930    2.1557   -0.0000 H   0  0  0  0  0  0  0  0  0  0  0  0
    6.0816    0.0958   -0.0000 H   0  0  0  0  0  0  0  0  0  0  0  0
    4.9613   -2.1209    0.0000 H   0  0  0  0  0  0  0  0  0  0  0  0
    2.5436   -2.2812    0.0000 H   0  0  0  0  0  0  0  0  0  0  0  0
    1.1378   -0.2143    0.0000 H   0  0  0  0  0  0  0  0  0  0  0  0
  1  2  2  0  0  0  0
  1 12  1  0  0  0  0
  2  3  1  0  0  0  0
  2  7  1  0  0  0  0
  3  4  2  0  0  0  0
  3  8  1  0  0  0  0
  4  5  1  0  0  0  0
  4  9  1  0  0  0  0
  5  6  2  0  0  0  0
  5 10  1  0  0  0  0
  6  1  1  0  0  0  0
  6 11  1  0  0  0  0
M  END
$$$$
