
 OpenBabel03112313483D

  5  4  0  0  0  0  0  0  0  0999 V2000
   -2.8848    0.7914    0.0000 C   0  0  0  0  0  0  0  0  0  0  0  0
   -1.8148    0.7914    0.0000 H   0  0  0  0  0  0  0  0  0  0  0  0
   -3.2414    1.6636    0.5069 H   0  0  0  0  0  0  0  0  0  0  0  0
   -3.2414   -0.0837    0.5019 H   0  0  0  0  0  0  0  0  0  0  0  0
   -3.2414    0.7943   -1.0088 H   0  0  0  0  0  0  0  0  0  0  0  0
  1  2  1  0  0  0  0
  1  3  1  0  0  0  0
  1  4  1  0  0  0  0
  1  5  1  0  0  0  0
M  END
