
 OpenBabel03112315093D

  3  2  0  0  0  0  0  0  0  0999 V2000
   -2.2597    0.7914    0.0000 O   0  0  0  0  0  0  0  0  0  0  0  0
   -1.2897    0.7914    0.0000 H   0  0  0  0  0  0  0  0  0  0  0  0
   -2.5831    1.3802   -0.6998 H   0  0  0  0  0  0  0  0  0  0  0  0
  1  2  1  0  0  0  0
  1  3  1  0  0  0  0
M  END
