
 OpenBabel03112315523D

  4  3  0  0  0  0  0  0  0  0999 V2000
   -2.2237    0.5981    0.0000 N   0  0  0  0  0  0  0  0  0  0  0  0
   -1.2037    0.5981    0.0000 H   0  0  0  0  0  0  0  0  0  0  0  0
   -2.5637    0.8038   -0.9394 H   0  0  0  0  0  0  0  0  0  0  0  0
   -2.5637    1.3087    0.6479 H   0  0  0  0  0  0  0  0  0  0  0  0
  1  2  1  0  0  0  0
  1  3  1  0  0  0  0
  1  4  1  0  0  0  0
M  END
