
 OpenBabel03082322353D

  8  7  0  0  0  0  0  0  0  0999 V2000
   -3.0220   -0.2598   -0.0000 C   0  0  0  0  0  0  0  0  0  0  0  0
   -1.4852   -0.2598   -0.0000 C   0  0  0  0  0  0  0  0  0  0  0  0
   -3.4028   -0.9194   -0.7829 H   0  0  0  0  0  0  0  0  0  0  0  0
   -3.4028    0.7481   -0.1798 H   0  0  0  0  0  0  0  0  0  0  0  0
   -3.4028   -0.6080    0.9627 H   0  0  0  0  0  0  0  0  0  0  0  0
   -1.1044    0.0885   -0.9627 H   0  0  0  0  0  0  0  0  0  0  0  0
   -1.1044   -1.2676    0.1798 H   0  0  0  0  0  0  0  0  0  0  0  0
   -1.1044    0.3998    0.7829 H   0  0  0  0  0  0  0  0  0  0  0  0
  1  2  1  0  0  0  0
  1  3  1  0  0  0  0
  1  4  1  0  0  0  0
  1  5  1  0  0  0  0
  2  6  1  0  0  0  0
  2  7  1  0  0  0  0
  2  8  1  0  0  0  0
M  END
