
 OpenBabel03092310383D

 28 29  0  0  0  0  0  0  0  0999 V2000
    2.5291   -0.0067   -0.0076 C   0  0  0  0  0  0  0  0  0  0  0  0
    1.0301    0.0058   -0.0016 C   0  0  0  0  0  0  0  0  0  0  0  0
    0.3186    1.2067    0.0158 C   0  0  0  0  0  0  0  0  0  0  0  0
   -1.0817    1.2024    0.0176 C   0  0  0  0  0  0  0  0  0  0  0  0
    0.3200   -1.1953   -0.0185 C   0  0  0  0  0  0  0  0  0  0  0  0
   -1.0803   -1.1941   -0.0316 C   0  0  0  0  0  0  0  0  0  0  0  0
   -1.8172    0.0034   -0.0145 C   0  0  0  0  0  0  0  0  0  0  0  0
   -3.3013    0.0020   -0.0385 C   0  0  0  0  0  0  0  0  0  0  0  0
   -4.0468   -1.0212    0.5762 C   0  0  0  0  0  0  0  0  0  0  0  0
   -5.4471   -1.0382    0.5342 C   0  0  0  0  0  0  0  0  0  0  0  0
   -6.1479   -0.0198   -0.1132 C   0  0  0  0  0  0  0  0  0  0  0  0
   -7.6460   -0.0258   -0.1717 C   0  0  0  0  0  0  0  0  0  0  0  0
   -5.4286    1.0125   -0.7163 C   0  0  0  0  0  0  0  0  0  0  0  0
   -4.0284    1.0171   -0.6841 C   0  0  0  0  0  0  0  0  0  0  0  0
    2.9394    1.0082    0.0096 H   0  0  0  0  0  0  0  0  0  0  0  0
    2.8969   -0.5020   -0.9120 H   0  0  0  0  0  0  0  0  0  0  0  0
    2.9058   -0.5367    0.8726 H   0  0  0  0  0  0  0  0  0  0  0  0
    0.8429    2.1589    0.0287 H   0  0  0  0  0  0  0  0  0  0  0  0
   -1.5924    2.1617    0.0507 H   0  0  0  0  0  0  0  0  0  0  0  0
    0.8493   -2.1454   -0.0287 H   0  0  0  0  0  0  0  0  0  0  0  0
   -1.5885   -2.1553   -0.0718 H   0  0  0  0  0  0  0  0  0  0  0  0
   -3.5454   -1.8255    1.1087 H   0  0  0  0  0  0  0  0  0  0  0  0
   -5.9789   -1.8562    1.0140 H   0  0  0  0  0  0  0  0  0  0  0  0
   -8.0651   -0.8945    0.3466 H   0  0  0  0  0  0  0  0  0  0  0  0
   -7.9821   -0.0619   -1.2129 H   0  0  0  0  0  0  0  0  0  0  0  0
   -8.0455    0.8751    0.3052 H   0  0  0  0  0  0  0  0  0  0  0  0
   -5.9494    1.8205   -1.2248 H   0  0  0  0  0  0  0  0  0  0  0  0
   -3.5118    1.8289   -1.1915 H   0  0  0  0  0  0  0  0  0  0  0  0
  1  2  1  0  0  0  0
  1 15  1  0  0  0  0
  1 16  1  0  0  0  0
  1 17  1  0  0  0  0
  2  3  1  0  0  0  0
  2  5  2  0  0  0  0
  3  4  2  0  0  0  0
  3 18  1  0  0  0  0
  4  7  1  0  0  0  0
  4 19  1  0  0  0  0
  5  6  1  0  0  0  0
  5 20  1  0  0  0  0
  6  7  2  0  0  0  0
  6 21  1  0  0  0  0
  7  8  1  0  0  0  0
  8  9  2  0  0  0  0
  8 14  1  0  0  0  0
  9 10  1  0  0  0  0
  9 22  1  0  0  0  0
 10 11  2  0  0  0  0
 10 23  1  0  0  0  0
 11 12  1  0  0  0  0
 11 13  1  0  0  0  0
 12 24  1  0  0  0  0
 12 25  1  0  0  0  0
 12 26  1  0  0  0  0
 13 14  2  0  0  0  0
 13 27  1  0  0  0  0
 14 28  1  0  0  0  0
M  END
$$$$
