
 OpenBabel03082322353D

  8  7  0  0  0  0  0  0  0  0999 V2000
   -3.0220   -0.2598   -0.0000 C   0  0  0  0  0  0  0  0  0  0  0  0
   -1.4852   -0.2598   -0.0000 C   0  0  0  0  0  0  0  0  0  0  0  0
   -3.4028   -0.9194   -0.7829 H   0  0  0  0  0  0  0  0  0  0  0  0
   -3.4028    0.7481   -0.1798 H   0  0  0  0  0  0  0  0  0  0  0  0
   -3.4028   -0.6080    0.9627 H   0  0  0  0  0  0  0  0  0  0  0  0
   -1.1044    0.0885   -0.9627 H   0  0  0  0  0  0  0  0  0  0  0  0
   -1.1044   -1.2676    0.1798 H   0  0  0  0  0  0  0  0  0  0  0  0
   -1.1044    0.3998    0.7829 H   0  0  0  0  0  0  0  0  0  0  0  0
  1  2  1  0  0  0  0
  1  3  1  0  0  0  0
  1  4  1  0  0  0  0
  1  5  1  0  0  0  0
  2  6  1  0  0  0  0
  2  7  1  0  0  0  0
  2  8  1  0  0  0  0
M  END
$$$$

 OpenBabel03082322443D

  6  5  0  0  0  0  0  0  0  0999 V2000
   -2.4452    0.8150    0.0010 C   0  0  0  0  0  0  0  0  0  0  0  0
   -1.0471    0.8216   -0.0112 O   0  0  0  0  0  0  0  0  0  0  0  0
   -2.8361    0.2454   -0.8699 H   0  0  0  0  0  0  0  0  0  0  0  0
   -2.8361    1.8556    0.0010 H   0  0  0  0  0  0  0  0  0  0  0  0
   -2.7940    0.3140    0.9274 H   0  0  0  0  0  0  0  0  0  0  0  0
   -0.7836    1.2768   -0.8527 H   0  0  0  0  0  0  0  0  0  0  0  0
  1  2  1  0  0  0  0
  1  3  1  0  0  0  0
  1  4  1  0  0  0  0
  1  5  1  0  0  0  0
  2  6  1  0  0  0  0
M  END
